powerflow/Codes/PF_Formulation/resultados_csv/500bus__1617_qv.csv
ID_Barra,Tipo_Barra,Vm_pu,Va_graus,Pg_pu,Qg_pu,Pd_pu,Qd_pu,Slack_QLIM_pu,Slack_VLIM_pu
1,1,1.0117495473251426,-8.649311718036127,0.0,0.0,0.0,0.0,0.0,-1.8417763877533252e-5
2,1,1.0111697686393688,-8.721177943649751,0.0,0.0,0.428,0.11410000000000001,0.0,-1.842846044959908e-5
3,1,1.003806645999984,-9.959033298439339,0.0,0.0,0.0,0.0,0.0,-0.00011968672261013361
4,1,1.0016376601275676,-10.21114423133748,0.0,0.0,1.327,0.3538,0.0,-0.00011998783522613256
5,1,1.014465274811112,0.8600676511612826,0.0,0.0,0.0,0.0,0.0,-1.4341283834064076e-5
6,1,1.0144176112795402,0.8539586988448997,0.0,0.0,0.03213,0.00857,0.0,-1.4342006587477641e-5
7,1,1.034577917103402,-4.811139320084877,0.0,0.0,0.0,0.0,0.0,-2.2052687443165928e-5
8,1,1.0256169344667678,-6.589145363481345,0.0,0.0,0.0,0.0,0.0,-5.85904739702446e-5
9,2,1.0433560691688624,-2.0248680654034956,7.718,1.4642803770200208,0.0,0.0,0.0033560691688622394,0.0
10,1,1.0166338458847612,-11.903423302284564,0.0,0.0,0.0,0.0,0.0,2.0613290668013612e-5
11,1,1.0165971021628477,-11.907569737997827,0.0,0.0,0.02472,0.00659,0.0,2.0614485310613348e-5
12,1,0.9945416336273231,-12.755068819528903,0.0,0.0,0.0,0.0,0.0,0.00033084902176159733
13,1,0.9939945623675662,-12.818978065140662,0.0,0.0,0.3716,0.09910000000000001,0.0,0.0003310711753923887
14,1,1.027473989055222,-2.509100879181629,0.0,0.0,0.0,0.0,0.0,5.1159106290011754e-5
15,1,1.0209527509299325,-4.9187875126027505,0.0,0.0,0.0,0.0,0.0,0.00019480631613153545
16,2,1.035615462396652,0.356240376675741,4.444,0.6916353251239955,0.0,0.0,-0.004384537603347896,0.0
17,3,1.0326751744380722,0.0,6.476809247279731,0.7460423309704737,0.0,0.0,-0.007324825561927833,0.0
18,2,1.0389672555774774,1.8026889041708654,1.5759999999999998,0.24885662149238266,0.0,0.0,-0.0010327444225227344,0.0
19,1,1.0173566831663605,-12.217876250046386,0.0,0.0,0.0,0.0,0.0,2.990557915031344e-5
20,1,1.0172861341749746,-12.227283403377808,0.0,0.0,0.045419999999999995,0.012110000000000001,0.0,2.9908706635234683e-5
21,1,1.008770558008676,-10.23644808356727,0.0,0.0,0.0,0.0,0.0,1.8961592132974292e-6
22,1,1.006643114524756,-10.489613092290515,0.0,0.0,1.4869999999999999,0.39649999999999996,0.0,1.9113927658627542e-6
23,1,1.02592890211929,-5.917769660901641,0.0,0.0,0.0,0.0,0.0,1.9156333902999933e-5
24,1,1.0110192508352078,-8.597879379274294,0.0,0.0,0.0,0.0,0.0,2.878402104627317e-5
25,1,1.01098343957224,-8.602313174812595,0.0,0.0,0.02283,0.00609,0.0,2.878541742971455e-5
26,1,1.0106850273008234,-8.641349183970107,0.0,0.0,0.21660000000000001,0.05777,0.0,2.8797472642332074e-5
27,1,1.0373944527614036,-14.192893163847868,0.0,0.0,0.0,0.0,0.0,0.00020967255237374057
28,1,1.036332443230113,-14.319655741859338,0.0,0.0,0.6293,0.1678,0.0,0.0002099539434914497
29,1,1.0058520129165378,-12.491623756106105,0.0,0.0,0.0,0.0,0.0,-3.200324180122544e-5
30,1,1.004358175133806,-12.669324177100323,0.0,0.0,0.9997,0.2666,0.0,-3.2055341011781934e-5
31,1,1.031975657295757,-14.968680725034964,0.0,0.0,0.0,0.0,0.0,7.679791435880872e-5
32,1,1.0318296465694021,-14.985820290961241,0.0,0.0,0.09765,0.02604,0.0,7.68123383112779e-5
33,1,1.0054434149295925,-13.20409056317221,0.0,0.0,0.0,0.0,0.0,1.855640502757709e-5
34,1,1.0050699621171424,-13.248273483873973,0.0,0.0,0.25,0.06666,0.0,1.8567270795691636e-5
35,1,1.0173971851922858,-13.792722520013463,0.0,0.0,0.0,0.0,0.0,9.085122849284119e-5
36,1,1.0168031311089736,-13.861738302516112,0.0,0.0,0.4335,0.11560000000000001,0.0,9.09194478270403e-5
37,1,1.019217146320522,1.2403070802362421,0.0,0.0,0.0,0.0,0.0,-3.6812411348625497e-6
38,1,1.019215194028374,1.240045202402194,0.0,0.0,0.0012900000000000001,0.00034,0.0,-3.6812446618415964e-6
39,1,1.0287430015533179,-5.721311128089323,0.0,0.0,0.0,0.0,0.0,5.0529195270181355e-6
40,1,1.0223136510242519,-6.914902417573777,0.0,0.0,0.0,0.0,0.0,8.598054409348412e-6
41,1,1.0213592656418613,-7.034368321870504,0.0,0.0,0.5799,0.15460000000000002,0.0,8.611107522465628e-6
42,1,1.0246822598560503,-11.498548999214016,0.0,0.0,0.0,0.0,0.0,0.00014917427629309947
43,1,1.0246219943575061,-11.505785696681524,0.0,0.0,0.044610000000000004,0.011899999999999999,0.0,0.00014918555189817552
44,1,1.0178769836987847,-7.658083825448298,0.0,0.0,0.0,0.0,0.0,-1.4512310948804228e-5
45,1,1.0178436938316513,-7.662247514650945,0.0,0.0,0.02031,0.00542,0.0,-1.4512770095853766e-5
46,1,0.9971976449779238,-11.119834205002967,0.0,0.0,0.0,0.0,0.0,1.79662177289157e-5
47,1,0.996532849686155,-11.202264816892349,0.0,0.0,0.4341,0.1158,0.0,1.7983540263595126e-5
48,1,1.0152902190706412,-15.955965808905091,0.0,0.0,0.0,0.0,0.0,0.002277781325100889
49,2,1.015018035532127,-15.75347475531285,0.013000000000000001,-0.0015900098346595063,0.0,0.0,0.01201803553212724,0.0
50,2,1.0149537945270757,-15.718256363760917,0.026000000000000002,-0.0031700097807607795,0.0,0.0,0.011953794527075857,0.0
51,1,1.0152762867000322,-15.956570721538753,0.0,0.0,0.0035399999999999997,0.00094,0.0,0.0022778356428335904
52,1,1.0149341757508061,-15.997205192948313,0.0,0.0,0.2339,0.06237,0.0,0.0022787795207818394
53,1,1.0117173831927608,-11.141680070674044,0.0,0.0,0.0,0.0,0.0,-3.525714419948581e-5
54,1,1.011201744141255,-11.19782485553568,0.0,0.0,0.3481,0.09282,0.0,-3.527509638603348e-5
55,1,1.0238730368084281,-10.890472666108261,0.0,0.0,0.0,0.0,0.0,0.00045459988687068803
56,1,1.0238380293324816,-10.894322180190292,0.0,0.0,0.02253,0.00601,0.0,0.000454619090407359
57,1,1.0120502138598158,-7.950531706994141,0.0,0.0,0.0,0.0,0.0,0.0001643584280200256
58,1,1.0049056601856914,-10.5799651636928,0.0,0.0,0.0,0.0,0.0,0.00019822393188589208
59,1,1.0025771601575522,-10.87506954904423,0.0,0.0,1.409,0.37579999999999997,0.0,0.0001988326512800319
60,1,1.0188132742897051,-7.450277972347084,0.0,0.0,0.0,0.0,0.0,1.2573375409104873e-5
61,1,1.0188103074244474,-7.450657982720403,0.0,0.0,0.0020399999999999997,0.00054,0.0,1.2573431670503487e-5
62,1,1.0066019646535285,-9.794165739255158,0.0,0.0,0.0,0.0,0.0,-0.00015197246577322338
63,2,1.0066019646535285,-9.794165739255158,0.0,0.0,0.0,0.0,-0.0033980353464716792,0.0
64,1,1.006071523082252,-9.855123709785735,0.0,0.0,0.3478,0.09273999999999999,0.0,-0.00015206383813867817
65,1,1.0263102330015874,-8.752518120730393,0.0,0.0,0.0,0.0,0.0,0.00018678285612876792
66,1,1.0245942142801594,-10.253218778398635,0.0,0.0,0.0,0.0,0.0,0.000410335836394359
67,1,1.024523434625659,-10.261140098150426,0.0,0.0,0.04569,0.01218,0.0,0.0004103699724161668
68,1,1.0255896238547755,-11.028344989508115,0.0,0.0,0.0,0.0,0.0,0.00019760418968252879
69,1,1.0253016530907293,-11.06363727549476,0.0,0.0,0.1696,0.04523,0.0,0.00019767638525627055
70,1,0.9960493535171002,-13.049443637498511,0.0,0.0,0.0,0.0,0.0,0.00023130394665689424
71,2,0.9960010927167516,-12.94601665793888,0.04,-0.0019600060135094356,0.0,0.0,1.0927167516578596e-6,0.0
72,2,0.9959612469559856,-12.882004338001375,0.02,-0.000980005913616679,0.0,0.0,-3.8753044014286275e-5,0.0
73,2,0.9961560199739715,-12.828545279821139,0.013999999999999999,-0.00023482153851505147,0.0,0.0,-0.0008439800260284802,0.0
74,1,1.024368790741914,-14.812633051393972,0.0,0.0,0.0,0.0,0.0,6.281360259604865e-5
75,1,1.024292233251323,-14.821845430882483,0.0,0.0,0.05301,0.01414,0.0,6.281999132629316e-5
76,1,1.0177164986706604,2.122692218513321,0.0,0.0,0.0,0.0,0.0,-3.156261886910233e-6
77,1,1.0176086583275483,2.110665699372729,0.0,0.0,0.06951,0.01854,0.0,-3.156247095210493e-6
78,1,1.014125915907286,-7.209890162545291,0.0,0.0,0.0,0.0,0.0,0.0002903614595515987
79,1,1.0141193416736387,-7.210540625527763,0.0,0.0,0.00381,0.0010199999999999999,0.0,0.0002903639539969013
80,1,1.03145523636827,-8.193889453492595,0.0,0.0,0.0,0.0,0.0,9.737989455616557e-5
81,1,1.026987492293985,-10.651778050903491,0.0,0.0,0.0,0.0,0.0,0.0001643499851475076
82,2,1.0367506329585274,-2.1537850206036664,3.6189999999999998,0.3170707524265514,0.0,0.0,-0.0032493670414727766,0.0
83,1,1.0038258803476874,-13.645319490517634,0.0,0.0,0.0,0.0,0.0,1.964962532675173e-5
84,1,1.0028360685985729,-13.767131577426705,0.0,0.0,0.6141,0.1638,0.0,1.9681228299100816e-5
85,1,1.0254504823656152,-13.791812833758556,0.0,0.0,0.0,0.0,0.0,5.7763283172281985e-5
86,1,1.025159630093983,-13.827542845565324,0.0,0.0,0.1759,0.04691,0.0,5.778588258850635e-5
87,1,1.0014987295872102,2.9402447505081577,0.0,0.0,0.0,0.0,0.0,5.5461334481365505e-6
88,1,1.0014161148468967,2.930033838364244,0.0,0.0,0.05253,0.01401,0.0,5.546945705794847e-6
89,1,1.0153402656755859,-9.012762805999643,0.0,0.0,0.0,0.0,0.0,-7.808813745716402e-5
90,1,1.0152484276917009,-9.024954087835082,0.0,0.0,0.05901,0.01574,0.0,-7.809711108531982e-5
91,1,1.0112937022831896,-6.450316896143641,0.0,0.0,0.0,0.0,0.0,0.0001919172961658828
92,1,1.010301743000001,-6.5766624933592555,0.0,0.0,0.6503,0.1734,0.0,0.00019215946895729906
93,1,1.0153114663985494,-4.272846454560189,0.0,0.0,0.0,0.0,0.0,-8.818914768777394e-6
94,1,1.0152390263740085,-4.281942982531126,0.0,0.0,0.052140000000000006,0.0139,0.0,-8.81945656495115e-6
95,1,1.0116742072853748,-6.372028389675803,0.0,0.0,0.0,0.0,0.0,0.0001781225515120898
96,1,1.011192206799156,-6.431118906758335,0.0,0.0,0.34,0.09066,0.0,0.000178227861868524
97,1,1.0293031728615276,-16.574459307216515,0.0,0.0,0.0,0.0,0.0,0.001753112778799553
98,1,1.0287071136523411,-16.651359504343876,0.0,0.0,0.3709,0.09891,0.0,0.0017545063683349787
99,1,1.0231718316687324,-6.963937093323052,0.0,0.0,0.0,0.0,0.0,8.541577568003963e-5
100,1,1.0229586421860521,-6.989456030925098,0.0,0.0,0.1352,0.03606,0.0,8.543810685553117e-5
101,1,1.0231578027994417,-6.96544898059864,0.0,0.0,0.00891,0.0023799999999999997,0.0,8.54171696602561e-5
102,1,1.0124112114814603,-14.561910513544937,0.0,0.0,0.0,0.0,0.0,0.0014350369734217811
103,1,1.0117729603354282,-14.642382980756565,0.0,0.0,0.38799999999999996,0.1035,0.0,0.001436223698423308
104,1,1.0181607670750366,-15.356834354170296,0.0,0.0,0.0,0.0,0.0,9.403932224897192e-5
105,1,1.0168350729919737,-15.515614708888137,0.0,0.0,0.8033,0.21420000000000003,0.0,9.42022760603442e-5
106,1,1.0197991694519233,-12.689544002349344,0.0,0.0,0.0,0.0,0.0,7.156869057037579e-5
107,1,1.0195744431951723,-12.71645952932841,0.0,0.0,0.16,0.042679999999999996,0.0,7.158952806447143e-5
108,1,1.014900345594236,-7.942979458451483,0.0,0.0,0.0,0.0,0.0,3.71586718366274e-5
109,1,1.0142141100095383,-8.018038377224732,0.0,0.0,0.4758,0.12689999999999999,0.0,3.7189480034871566e-5
110,1,1.0268235567907482,-2.794675575982591,0.0,0.0,0.0,0.0,0.0,-2.3436485162610252e-5
111,1,1.025901099771266,-2.9155532247836113,0.0,0.0,0.6229,0.1661,0.0,-2.3462148915368545e-5
112,1,1.012963922142543,-11.68494555315605,0.0,0.0,0.0,0.0,0.0,1.6705844101042397e-5
113,1,1.012292430196415,-11.76069049933447,0.0,0.0,0.45990000000000003,0.1226,0.0,1.672263175233698e-5
114,1,1.0189444692485745,-14.193027265286709,0.0,0.0,0.0,0.0,0.0,9.588442842802078e-5
115,1,1.0188744711770519,-14.20203340333373,0.0,0.0,0.05061,0.013500000000000002,0.0,9.589353665066412e-5
116,1,1.01890113563116,-14.198627224715251,0.0,0.0,0.030990000000000004,0.00826,0.0,9.589010095889632e-5
117,1,1.0054320982803462,-12.123946813613403,0.0,0.0,0.0,0.0,0.0,0.00019404015368071229
118,1,1.0052854056781106,-12.142374006254087,0.0,0.0,0.08832000000000001,0.02355,0.0,0.00019407743726926414
119,1,0.9893624763260725,-13.103105956313238,0.0,0.0,0.0,0.0,0.0,0.00027119539048168356
120,1,0.9889221495848092,-13.157045363666764,0.0,0.0,0.3165,0.08439999999999999,0.0,0.0002713475381739712
121,1,1.007087521237956,-11.863691597752824,0.0,0.0,0.0,0.0,0.0,-4.78559288863384e-5
122,1,1.006247594020153,-11.975272201229192,0.0,0.0,0.5336,0.1423,0.0,-4.790635922880587e-5
123,1,1.0294807543594309,-2.222038043924241,0.0,0.0,0.0,0.0,0.0,4.418060900583148e-5
124,1,1.0273472126999192,-2.9137021132050354,0.0,0.0,0.0,0.0,0.0,6.335977400710339e-5
125,2,1.0294807543594309,-2.222038043924241,0.0,0.0,0.0,0.0,-0.0005192456405691766,0.0
126,2,1.0294807543594309,-2.222038043924241,0.0,0.0,0.0,0.0,-0.0005192456405691766,0.0
127,2,1.039047802078162,1.9346064006810586,1.62,0.25331164110404725,0.0,0.0,-0.0009521979218379447,0.0
128,2,1.0371289039634537,-0.8483346936187125,1.62,0.5034559872257005,0.0,0.0,-0.0028710960365462353,0.0
129,1,0.9872296887063128,-13.825098158368164,0.0,0.0,0.0,0.0,0.0,0.00026665122267335053
130,1,0.985593133266716,-14.009511050376489,0.0,0.0,1.032,0.2753,0.0,0.00026718201766155774
131,1,1.0195392173264495,-7.3306826088495995,0.0,0.0,0.0,0.0,0.0,1.2293321766920697e-5
132,1,1.0191339179363452,-7.378423424643102,0.0,0.0,0.252,0.06721,0.0,1.2300516199992828e-5
133,1,1.0124239381218425,-6.355181783154464,0.0,0.0,0.0,0.0,0.0,0.00018531200724895646
134,1,1.0118591551540088,-6.4254334841367955,0.0,0.0,0.4265,0.1137,0.0,0.0001854419240851271
135,1,1.011491934252145,-9.204524078959782,0.0,0.0,0.0,0.0,0.0,-9.066017848658072e-5
136,1,1.0110882812964432,-9.257209587240197,0.0,0.0,0.2676,0.07135,0.0,-9.070587141080226e-5
137,1,1.0076716909481316,-12.228869606421583,0.0,0.0,0.0,0.0,0.0,0.00015217040499799995
138,1,1.0064426282968642,-12.39069866466764,0.0,0.0,0.787,0.20989999999999998,0.0,0.0001524269842651346
139,1,1.0152885713398205,-7.921775839022738,0.0,0.0,0.0,0.0,0.0,2.162945576520975e-5
140,1,1.015284864799642,-7.922203455400926,0.0,0.0,0.00255,0.00068,0.0,2.1629563907038837e-5
141,1,1.0013112119295344,-0.2967460684587389,0.0,0.0,0.0,0.0,0.0,9.692145490773115e-6
142,1,0.9987167362844592,-0.5955778635460796,0.0,0.0,1.6130000000000002,0.4302,0.0,9.730772695764837e-6
143,1,1.0188700184146104,8.642675570647754,0.0,0.0,0.0,0.0,0.0,1.3064156682633903e-7
144,2,1.0399963005445674,21.174108278366067,6.025,1.1131979066893904,0.0,0.0,-3.6994554326658797e-6,0.0
145,2,1.039993179849184,11.319829604514302,2.9819999999999998,1.267070824372276,0.0,0.0,-6.820150816189293e-6,0.0
146,1,1.0283086152819418,-5.7550759108982525,0.0,0.0,0.0,0.0,0.0,-9.406538768798914e-6
147,1,1.0167613427613487,-6.4195735442793715,0.0,0.0,0.0,0.0,0.0,-9.366194291702264e-6
148,1,1.0158310381603952,-6.539883473809346,0.0,0.0,0.5742,0.1531,0.0,-9.373996857344924e-6
149,1,1.0241111006143897,-11.48470127278599,0.0,0.0,0.0,0.0,0.0,0.00023350481146865214
150,1,1.0240858161759963,-11.48757604952072,0.0,0.0,0.015029999999999998,0.0040100000000000005,0.0,0.00023351211712256125
151,1,1.0263083845448648,-5.99716521333356,0.0,0.0,0.0,0.0,0.0,1.323658651945155e-5
152,1,1.0179771654800107,-8.38800004837334,0.0,0.0,0.0,0.0,0.0,1.4768588171890636e-5
153,1,1.01672796613148,-8.54121242893385,0.0,0.0,0.9315000000000001,0.2484,0.0,1.479531681272801e-5
154,1,1.008980515107607,-8.837523934256598,0.0,0.0,0.0,0.0,0.0,1.517542275787325e-5
155,1,1.0080943435235303,-8.945321968827097,0.0,0.0,0.6684,0.1782,0.0,1.5194813476300939e-5
156,1,0.9855906596876397,-12.504203864564056,0.0,0.0,0.0,0.0,0.0,2.150982582037831e-5
157,1,0.9839203702366855,-12.71736207356349,0.0,0.0,1.055,0.2812,0.0,2.15628287285103e-5
158,1,1.0074553315797854,-11.429646623781952,0.0,0.0,0.0,0.0,0.0,-3.5198810530314806e-5
159,1,1.0070844252775895,-11.477559183931255,0.0,0.0,0.2285,0.06094,0.0,-3.521426582412048e-5
160,1,1.0191939640069714,-12.975561388732388,0.0,0.0,0.0,0.0,0.0,6.270674003539931e-5
161,1,1.0188095126580745,-13.02452508696457,0.0,0.0,0.2595,0.06921000000000001,0.0,6.273978642847566e-5
162,1,1.0285609860217098,-5.716509538853664,0.0,0.0,0.0,0.0,0.0,-9.895264208834594e-6
163,1,1.0246892761998583,-6.497638410462758,0.0,0.0,0.0,0.0,0.0,-1.0700831764334928e-5
164,1,1.023039174118243,-6.702245654566461,0.0,0.0,0.9815,0.26170000000000004,0.0,-1.0716094621852748e-5
165,1,1.0297470332630747,-1.8901480762533454,0.0,0.0,0.0,0.0,0.0,3.9323965566084915e-5
166,1,1.025307299146379,-3.211196848131264,0.0,0.0,0.0,0.0,0.0,5.559975484386166e-5
167,2,1.038119698360823,0.3375631677477619,1.935,0.3988708998627706,0.0,0.0,-0.0018803016391769837,0.0
168,2,1.0388560573395043,1.785615011616236,1.935,0.31283443214345874,0.0,0.0,-0.0011439426604957902,0.0
169,2,1.0384081460726324,3.412854470798478,3.87,0.4775612998946899,0.0,0.0,-0.0015918539273675884,0.0
170,1,1.0111838161405813,-6.514171140328166,0.0,0.0,0.0,0.0,0.0,0.0001795732814837372
171,1,1.010997087396135,-6.539404374689579,0.0,0.0,0.12380000000000001,0.033,0.0,0.0001796180244588939
172,1,1.0064290146670833,-10.844052447152775,0.0,0.0,0.0,0.0,0.0,0.00017574530406885315
173,1,1.0063813903606136,-10.849284082457347,0.0,0.0,0.031349999999999996,0.00836,0.0,0.0001757552875068041
174,1,1.0063271056792613,-10.855959424215952,0.0,0.0,0.07305,0.01948,0.0,0.00017576744597991154
175,1,1.033520463797416,-1.4018789210189033,0.0,0.0,0.0,0.0,0.0,3.637528489595369e-6
176,1,1.0228734878234351,-0.5665258607396155,0.0,0.0,0.0,0.0,0.0,-4.768427264511943e-6
177,1,1.0227420593670598,-0.5833607753857332,0.0,0.0,0.08781,0.02342,0.0,-4.768808177376159e-6
178,1,1.0227718309330964,-0.577619845282807,0.0,0.0,0.06813,0.01817,0.0,-4.768570212037733e-6
179,1,1.0004831387750666,-12.661962119576064,0.0,0.0,0.0,0.0,0.0,-4.294845218123361e-5
180,1,1.0002606170070307,-12.687199160085488,0.0,0.0,0.1414,0.0377,0.0,-4.295858368509201e-5
181,1,1.043485331187034,-16.463526661754987,0.0,0.0,0.0,0.0,0.0,0.0017756399229822886
182,1,1.0421896125481525,-16.61784505113143,0.0,0.0,0.8261,0.22030000000000002,0.0,0.0017785097908166417
183,1,1.0242490196908174,-4.562515683226392,0.0,0.0,0.0,0.0,0.0,-2.259443023570385e-5
184,1,1.0238526020271945,-4.609737027994285,0.0,0.0,0.3018,0.08047,0.0,-2.2603886179728093e-5
185,1,1.009092609069778,-8.045437406437035,0.0,0.0,0.0,0.0,0.0,0.0001351966701616489
186,1,1.0084711800094004,-8.119886146986275,0.0,0.0,0.4535,0.1209,0.0,0.00013529935194288528
187,1,1.0145710852309318,-9.40079720362869,0.0,0.0,0.0,0.0,0.0,-7.150122403987146e-5
188,1,1.0144069637040305,-9.41904700209113,0.0,0.0,0.1105,0.02946,0.0,-7.151362273082823e-5
189,1,1.0272432870118973,-15.095270420423581,0.0,0.0,0.0,0.0,0.0,6.99312693735297e-5
190,1,1.0270385811280216,-15.116864135925336,0.0,0.0,0.1407,0.03752,0.0,6.994861314350194e-5
191,1,1.0196133006754395,-13.655486129672495,0.0,0.0,0.0,0.0,0.0,0.00010753892202913985
192,1,1.0193405861945115,-13.68793970635487,0.0,0.0,0.16440000000000002,0.043840000000000004,0.0,0.00010757614541639945
193,1,1.0142543240147104,-12.172904259293862,0.0,0.0,0.0,0.0,0.0,2.4217282461052414e-5
194,1,1.0137698465295437,-12.230721072985295,0.0,0.0,0.2869,0.07652,0.0,2.423415918743235e-5
195,1,1.0286285147279168,-5.746088610714548,0.0,0.0,0.0,0.0,0.0,-8.896756228511868e-6
196,1,1.0191186426056789,-8.00781086750495,0.0,0.0,0.0,0.0,0.0,-4.395079103815094e-6
197,2,1.0402967358429576,-0.8785190650151998,2.9360000000000004,0.4589319418535266,0.0,0.0,0.0002967358429575135,0.0
198,2,1.0404198488988499,-3.332152606999139,2.073,0.5682945981046664,0.0,0.0,0.0004198488988496245,0.0
199,1,1.0177769796740415,-8.157054791201311,0.0,0.0,0.8639,0.2304,0.0,-4.395295135003871e-6
200,1,1.0202165262280711,-7.257889409854955,0.0,0.0,0.0,0.0,0.0,-1.301940957665239e-5
201,1,1.0200830079567837,-7.272528762679073,0.0,0.0,0.08889,0.023700000000000002,0.0,-1.302068922527544e-5
202,1,1.0040665845053365,-10.256869650846353,0.0,0.0,0.0,0.0,0.0,0.0001783726164078545
203,1,1.0039908348198119,-10.266047145798078,0.0,0.0,0.04689,0.0125,0.0,0.0001783898215557971
204,1,1.0033405487127096,-10.354054227214313,0.0,0.0,0.4567,0.12179999999999999,0.0,0.0001785499412205533
205,1,1.0214372658803843,-14.59095953130897,0.0,0.0,0.0,0.0,0.0,9.08968348414415e-5
206,1,1.0213968838179581,-14.595716483593844,0.0,0.0,0.03009,0.008020000000000001,0.0,9.09015495062561e-5
207,1,1.02107412433271,-14.634677527057157,0.0,0.0,0.2257,0.06019,0.0,9.093966237134685e-5
208,1,1.0170241461002791,-14.371444958399424,0.0,0.0,0.0,0.0,0.0,0.00021812147621321263
209,1,1.015831835375608,-14.52869634546267,0.0,0.0,0.8186,0.2183,0.0,0.00021847715661448317
210,1,1.0011359610587256,-10.008925187562914,0.0,0.0,0.0,0.0,0.0,2.6518383641710935e-5
211,1,1.0005569346466066,-10.079549330538695,0.0,0.0,0.3428,0.09141,0.0,2.6539373475159803e-5
212,1,1.0193426088427322,-12.795200399358626,0.0,0.0,0.0,0.0,0.0,6.078365468012554e-5
213,1,1.0177941138367392,-12.98457930002678,0.0,0.0,0.9748,0.26,0.0,6.091068519127141e-5
214,1,1.0044621464228531,-13.04397582348075,0.0,0.0,0.0,0.0,0.0,0.00011196711816013534
215,1,1.0031134303156033,-13.219744110101674,0.0,0.0,0.8448,0.2253,0.0,0.00011217673671233158
216,1,0.9925283902989863,-13.391657951554427,0.0,0.0,0.0,0.0,0.0,0.00027084512640608403
217,1,0.9917292790225534,-13.48688373685847,0.0,0.0,0.551,0.1469,0.0,0.0002711179423376244
218,1,1.0259639774728724,-13.53801947807421,0.0,0.0,0.0,0.0,0.0,6.942627903362463e-5
219,1,1.0259586726143153,-13.538652119548265,0.0,0.0,0.00333,0.00089,0.0,6.942678821689611e-5
220,1,1.0353332690283692,-1.7492675674983118,0.0,0.0,0.0,0.0,0.0,7.062593484518275e-6
221,1,1.0232316317893575,-4.878601550945186,0.0,0.0,0.0,0.0,0.0,9.73406768449242e-5
222,2,1.0356713612368171,-1.68782291203272,0.052000000000000005,0.014632350819657074,0.0,0.0,-0.00032863876318291033,0.0
223,2,1.0374595607701953,-1.4573837468904638,0.18,0.06911990618771419,0.0,0.0,-0.0005404392298046114,0.0
224,2,1.0393900392610687,1.5190245668833762,5.112,0.3929136137927221,0.0,0.0,-0.0006099607389314695,0.0
225,2,1.0388216925696931,-0.04875730832289414,5.148,0.5852168145374151,0.0,0.0,-0.0011783074303070244,0.0
226,1,1.011643812147898,-6.523197608233732,0.0,0.0,0.0,0.0,0.0,0.00018210701150263585
227,1,1.0115595924566094,-6.532816210946837,0.0,0.0,0.054240000000000003,0.014459999999999999,0.0,0.00018212485041113589
228,1,1.0078033550357242,-7.184312328258771,0.0,0.0,0.0,0.0,0.0,9.525090486127335e-5
229,1,1.0069706422688134,-7.2891176936958155,0.0,0.0,0.5409,0.1442,0.0,9.535233210432919e-5
230,1,1.0277679054654003,-11.547301206598467,0.0,0.0,0.0,0.0,0.0,0.0017582926935731066
231,2,1.0272073676978366,-11.249494382683057,0.028999999999999998,-0.003540009789067719,0.0,0.0,0.014207367697836823,0.0
232,1,1.028450296423259,-6.626029619981723,0.0,0.0,0.0,0.0,0.0,-1.959842271242755e-5
233,1,1.0157545309734959,-9.964443498577355,0.0,0.0,0.0,0.0,0.0,-3.082766374282322e-5
234,1,1.014889192314748,-10.073346753828927,0.0,0.0,0.5996,0.15990000000000001,0.0,-3.085789552673949e-5
235,1,1.0288463206144207,-10.544611450228814,0.0,0.0,0.0,0.0,0.0,4.230624089449131e-5
236,1,1.02155336630787,-11.75929656585261,0.0,0.0,0.0,0.0,0.0,4.613728275915775e-5
237,1,1.021511024533764,-11.76400412599587,0.0,0.0,0.027120000000000002,0.0072299999999999994,0.0,4.613977063324841e-5
238,1,1.0075519499178158,-9.750801966971554,0.0,0.0,0.0,0.0,0.0,1.6130064761628643e-5
239,1,1.0069765998684035,-9.827739056945708,0.0,0.0,0.39130000000000004,0.10439999999999999,0.0,1.6144083210825823e-5
240,1,1.0223834670684542,-14.479852679690616,0.0,0.0,0.0,0.0,0.0,5.7350416150948084e-5
241,1,1.0220734806374268,-14.521403202205853,0.0,0.0,0.1974,0.05264,0.0,5.737585672339261e-5
242,1,1.00079168767841,-13.814592489112332,0.0,0.0,0.0,0.0,0.0,-5.667155001608763e-5
243,1,0.9996014378387142,-13.965615431668375,0.0,0.0,0.7447,0.1986,0.0,-5.675444865972393e-5
244,1,1.0092627848653797,-11.13302655420474,0.0,0.0,0.0,0.0,0.0,0.0001733009613439708
245,1,1.0090934411164671,-11.152958755805946,0.0,0.0,0.1184,0.031560000000000005,0.0,0.00017333735227914278
246,1,1.0307858948631514,-5.486585315899433,0.0,0.0,0.0,0.0,0.0,-9.273555116230343e-6
247,1,1.025455694857981,-4.770572702893186,0.0,0.0,0.0,0.0,0.0,-1.970912490007351e-5
248,2,1.0307858948631514,-5.486585315899433,0.0,0.0,0.0,0.0,-0.001214105136848729,0.0
249,2,1.0307858948631514,-5.486585315899433,0.0,0.0,0.0,0.0,-0.001214105136848729,0.0
250,2,1.0307858948631514,-5.486585315899433,0.0,0.0,0.0,0.0,-0.001214105136848729,0.0
251,1,0.9903690802138744,-11.961230039120153,0.0,0.0,0.0,0.0,0.0,9.267568458405729e-5
252,1,0.9883279544572904,-12.21740069712748,0.0,0.0,1.187,0.3165,0.0,9.292891781321371e-5
253,1,0.9925038638709411,-12.366666081281727,0.0,0.0,0.0,0.0,0.0,0.0002732996142182959
254,2,0.9925038638709411,-12.366666081281727,0.0,0.0,0.0,0.0,0.0015038638709411157,0.0
255,2,0.9925038638709411,-12.366666081281727,0.0,0.0,0.0,0.0,0.001503863870941116,0.0
256,2,0.9925038638709411,-12.366666081281727,0.0,0.0,0.0,0.0,0.001503863870941116,0.0
257,2,0.9925038638709411,-12.366666081281727,0.0,0.0,0.0,0.0,0.0015038638709411157,0.0
258,2,0.9922531545905791,-12.19999870863509,0.011000000000000001,-0.0013400072843032219,0.0,0.0,0.0002531545905790641,0.0
259,1,0.9923707530601045,-12.38281846343571,0.0,0.0,0.0816,0.02176,0.0,0.0002733455629510979
260,1,1.0257376167681913,-3.1557174599314264,0.0,0.0,0.0,0.0,0.0,5.949053472842288e-5
261,1,1.0254715945289627,-3.1878963155230955,0.0,0.0,0.1868,0.04982,0.0,5.950952769255357e-5
262,1,1.0273989279432707,-6.900623177179696,0.0,0.0,0.0,0.0,0.0,-3.019204207154187e-5
263,1,1.0171012099633925,-11.146890708306909,0.0,0.0,0.0,0.0,0.0,-3.7130514289217304e-5
264,2,1.0273989279432707,-6.900623177179696,0.0,0.0,0.0,0.0,-0.001601072056729045,0.0
265,2,1.0273989279432707,-6.900623177179696,0.0,0.0,0.0,0.0,-0.0016010720567290451,0.0
266,1,1.0162002025323893,-11.25831542014776,0.0,0.0,0.6178,0.1648,0.0,-3.716871653497012e-5
267,1,1.0154382628558225,-16.15958070450936,0.0,0.0,0.0,0.0,0.0,8.068092372038723e-5
268,1,1.0137484237916943,-16.383827496548047,0.0,0.0,1.171,0.3124,0.0,8.087558349526705e-5
269,1,1.0154317269287858,-5.130351428534487,0.0,0.0,0.0,0.0,0.0,-9.010506997757003e-6
270,1,1.0153222611702777,-5.1448032494673335,0.0,0.0,0.06801,0.01814,0.0,-9.011423258394823e-6
271,1,1.028210341024601,-10.732968911689483,0.0,0.0,0.0,0.0,0.0,4.2289851981622196e-5
272,1,1.0227700162700721,-12.464836717997716,0.0,0.0,0.0,0.0,0.0,4.202914107765224e-5
273,1,1.022618186825177,-12.484834492355995,0.0,0.0,0.09492,0.025310000000000003,0.0,4.203826464807126e-5
274,1,1.0256941982502077,-3.6074541064473795,0.0,0.0,0.0,0.0,0.0,-2.7884262592894938e-5
275,2,1.0256941982502077,-3.6074541064473795,0.0,0.0,0.0,0.0,-0.0003058017497923627,0.0
276,1,1.0110362312788725,-11.655261253860637,0.0,0.0,0.0,0.0,0.0,-3.809585342062028e-5
277,1,1.0110302981059618,-11.656061209153473,0.0,0.0,0.004050000000000001,0.00108,0.0,-3.809612372774099e-5
278,1,1.0109475819760096,-11.667257007192559,0.0,0.0,0.05769,0.01538,0.0,-3.8100056161017844e-5
279,1,1.00384123891585,-8.8064000339295,0.0,0.0,0.0,0.0,0.0,9.733911005267228e-5
280,1,1.0035854679242724,-8.834306608339418,0.0,0.0,0.16940000000000002,0.04518,0.0,9.736773867582516e-5
281,1,1.003387766067081,-14.700080654509181,0.0,0.0,0.0,0.0,0.0,0.000994400927229047
282,1,1.0016152405027823,-14.932320271457444,0.0,0.0,1.173,0.3128,0.0,0.0009967874558748913
283,1,1.0158990632400866,-12.222389242934376,0.0,0.0,0.0,0.0,0.0,3.6571565466174874e-5
284,1,1.0153487237887984,-12.291601214880314,0.0,0.0,0.3265,0.08706,0.0,3.659991167860074e-5
285,1,1.0311477886160614,-13.238812176803668,0.0,0.0,0.0,0.0,0.0,0.0017709183606897684
286,1,1.0310187999804463,-13.252507706959916,0.0,0.0,0.08268,0.02205,0.0,0.0017711894618946172
287,1,1.0088499892870073,-10.44730763064274,0.0,0.0,0.0,0.0,0.0,-7.41886837167181e-5
288,1,1.0079689247247732,-10.567893792410631,0.0,0.0,0.5811,0.155,0.0,-7.42743782451484e-5
289,1,1.0194352556485538,-4.547167592389245,0.0,0.0,0.0,0.0,0.0,7.110946417312344e-5
290,1,1.019378595277641,-4.554615547911967,0.0,0.0,0.0369,0.00984,0.0,7.111472670984413e-5
291,1,1.0038841270674685,-12.111788272202457,0.0,0.0,0.0,0.0,0.0,-3.882604091517977e-5
292,1,1.0037749067157944,-12.12506876887854,0.0,0.0,0.07617,0.02031,0.0,-3.88307942411841e-5
293,1,1.0200593192100693,-12.79285132415857,0.0,0.0,0.0,0.0,0.0,0.00017627091107803148
294,1,1.0196760757957215,-12.836835641785067,0.0,0.0,0.2561,0.06828000000000001,0.0,0.0001763524951286252
295,1,1.0226795834488651,-9.504492619701482,0.0,0.0,0.0,0.0,0.0,0.00019137208293568228
296,1,1.0225687210382777,-9.518533216611278,0.0,0.0,0.07788,0.02077,0.0,0.000191399600166876
297,1,1.0195501449541287,-8.638260975630049,0.0,0.0,0.0,0.0,0.0,0.00017715281032260947
298,1,1.0165357276768296,-10.059216602977552,0.0,0.0,0.0,0.0,0.0,0.00017415814798930803
299,1,1.0163186347938784,-10.087412465865913,0.0,0.0,0.1457,0.038849999999999996,0.0,0.0001742082201642985
300,1,1.0062455353526818,-2.489526631599353,0.0,0.0,0.0,0.0,0.0,1.5105298013584024e-5
301,2,1.0068129423816563,-2.3571103023451925,0.028999999999999998,0.006189125282320312,0.0,0.0,-0.00018705761834360217,0.0
302,2,1.006805965963683,-2.362260506942645,0.028999999999999998,0.00587584984089861,0.0,0.0,-0.00019403403631707271,0.0
303,1,1.0047620253831262,-2.6775702724308976,0.0,0.0,0.8676,0.2314,0.0,1.5138218906262395e-5
304,1,0.9879234216279916,-13.70917190179603,0.0,0.0,0.0,0.0,0.0,0.00030059094012053876
305,2,0.9878517712632942,-13.393934732049273,0.01,-0.0004900058133343023,0.0,0.0,-0.000148228736705838,0.0
306,2,0.9877329858696869,-13.356622038672489,0.024,-0.0011800060445727111,0.0,0.0,-0.00026701413031300164,0.0
307,1,0.9867851980543418,-13.857564726145682,0.0,0.0,0.7604000000000001,0.2028,0.0,0.0003010536983600798
308,1,1.0188073823168382,-12.385094191722603,0.0,0.0,0.0,0.0,0.0,0.0008336435024093542
309,1,1.0186513052714679,-12.404107892314457,0.0,0.0,0.09029999999999999,0.02408,0.0,0.0008338087119207234
310,1,1.015105745238957,-15.688629279940386,0.0,0.0,0.0,0.0,0.0,0.0013275250011514459
311,1,1.0144199733195545,-15.772039348934893,0.0,0.0,0.43829999999999997,0.11689999999999999,0.0,0.0013286799831629592
312,1,1.018905856684,-14.547835790075968,0.0,0.0,0.0,0.0,0.0,8.17649886460306e-5
313,1,1.0186975318401263,-14.573962750560714,0.0,0.0,0.1244,0.033170000000000005,0.0,8.178786670181498e-5
314,1,1.0245215133902832,-10.481941550146873,0.0,0.0,0.0,0.0,0.0,0.0001954284775678917
315,1,1.0245151881864565,-10.482633350064859,0.0,0.0,0.00426,0.00114,0.0,0.00019543012326334651
316,1,1.019036278537072,-0.6976548518226182,0.0,0.0,0.0,0.0,0.0,-1.8179510912838376e-5
317,1,1.0189816899241988,-0.7035913156894432,0.0,0.0,0.03753,0.010009999999999998,0.0,-1.8180407165379485e-5
318,1,1.021454156031152,-1.5546884811599988,0.0,0.0,0.0,0.0,0.0,-1.3197582602010813e-5
319,2,1.0335601526538516,0.17305056890950207,0.423,0.16239998944198922,0.0,0.0,-0.0004398473461484635,0.0
320,1,0.9969861825251342,-14.012789612117684,0.0,0.0,0.0,0.0,0.0,-4.831595118584949e-5
321,1,0.9945670008401383,-14.312764996569568,0.0,0.0,1.504,0.4011,0.0,-4.84570792918868e-5
322,1,1.0015643957888611,-12.316133202919051,0.0,0.0,0.0,0.0,0.0,0.00021627554742121221
323,1,1.0008901836808408,-12.392035200530612,0.0,0.0,0.45270000000000005,0.1207,0.0,0.00021645000593279335
324,1,0.9918448039785709,-13.456529993507118,0.0,0.0,0.0,0.0,0.0,0.00024034924046933167
325,1,0.9902416102538534,-13.672025725566694,0.0,0.0,1.035,0.2759,0.0,0.00024088537003413588
326,1,1.008906157690578,-12.853711264270473,0.0,0.0,0.0,0.0,0.0,-3.702054836279844e-5
327,1,1.0071898181237509,-13.06135929106614,0.0,0.0,1.2109999999999999,0.32280000000000003,0.0,-3.7092668444304326e-5
328,1,1.0043992180432328,-11.44605880358814,0.0,0.0,0.0,0.0,0.0,0.0006666136230438586
329,1,1.0040437549935841,-11.488707321786807,0.0,0.0,0.2602,0.06938,0.0,0.0006669075503918042
330,1,1.0145186944552695,-8.026442094418782,0.0,0.0,0.0,0.0,0.0,1.984111222415045e-5
331,1,1.0136107495235136,-8.145245359069369,0.0,0.0,0.5717,0.1525,0.0,1.9867183768353577e-5
332,1,1.0285832867974978,-5.6481004135282795,0.0,0.0,0.0,0.0,0.0,9.189861533221445e-6
333,1,1.0199281529459954,-7.2344980375303205,0.0,0.0,0.0,0.0,0.0,1.4892876244078268e-5
334,1,1.0199206544857982,-7.235330516428855,0.0,0.0,0.00501,0.00134,0.0,1.4893028754615452e-5
335,1,1.0199152434200565,-7.2360524301105436,0.0,0.0,0.00834,0.00222,0.0,1.4893148090761286e-5
336,1,1.0157871482300742,-2.851086603209698,0.0,0.0,0.0,0.0,0.0,-8.556573048974066e-6
337,1,1.0156975706449387,-2.862913228324824,0.0,0.0,0.05673,0.01513,0.0,-8.557294323318018e-6
338,1,1.0112455244765524,7.344703240263969,0.0,0.0,0.0,0.0,0.0,4.510340697153948e-7
339,1,1.010107542166581,7.198069371725662,0.0,0.0,0.7511,0.2003,0.0,4.5488921027086675e-7
340,1,1.0023987103683052,-9.489700054357312,0.0,0.0,0.0,0.0,0.0,6.757763101624239e-5
341,1,1.0020007334856427,-9.5405795417951,0.0,0.0,0.2422,0.06459,0.0,6.761322738188923e-5
342,1,1.0111907411282914,-12.651337540037032,0.0,0.0,0.0,0.0,0.0,2.02060775067094e-5
343,1,1.0111523303818837,-12.656225358953183,0.0,0.0,0.02511,0.0067,0.0,2.020734704946338e-5
344,1,1.0111520853145781,-12.656407430701242,0.0,0.0,0.024300000000000002,0.0064800000000000005,0.0,2.02073671664188e-5
345,1,0.9975918920391291,-12.873157523774639,0.0,0.0,0.0,0.0,0.0,-5.311411228533901e-5
346,1,0.9969197817647394,-12.95642875940669,0.0,0.0,0.4758,0.12689999999999999,0.0,-5.31563794014506e-5
347,1,0.9889297550311421,-12.727456911634727,0.0,0.0,0.0,0.0,0.0,0.00023148973380813769
348,1,0.9876918224692098,-12.877703647075071,0.0,0.0,0.8640000000000001,0.2304,0.0,0.00023185405029497083
349,1,1.0194331117884368,-11.516897635508487,0.0,0.0,0.0,0.0,0.0,2.0823949891580615e-5
350,2,1.0237035400248709,-10.935561616201976,0.15,0.05615040629350106,0.0,0.0,-0.00029645997512916665,0.0
351,2,1.021505504072301,-11.251650323104847,0.062,0.02380995744576462,0.0,0.0,-0.0004944959276990076,0.0
352,2,1.0237043509869916,-10.956031799220805,0.14400000000000002,0.05524761669148565,0.0,0.0,-0.000295649013008266,0.0
353,2,1.0397057718363485,-8.668774100809168,0.74,0.282394049059616,0.0,0.0,-0.00029422816365149974,0.0
354,1,1.0218240250556077,-7.091423084500052,0.0,0.0,0.0,0.0,0.0,-2.532883150617639e-5
355,1,1.0214933707556078,-7.130609433169223,0.0,0.0,0.1996,0.053239999999999996,0.0,-2.5337095027872586e-5
356,1,1.01869249234121,-14.978233870247111,0.0,0.0,0.0,0.0,0.0,0.0002170948449191885
357,1,1.0178878661471458,-15.079157057546036,0.0,0.0,0.5573,0.14859999999999998,0.0,0.00021732483294905722
358,1,1.020389718097547,-16.184925085783473,0.0,0.0,0.0,0.0,0.0,0.0017245546029900233
359,1,1.0201541666556724,-16.21158551520222,0.0,0.0,0.1459,0.038900000000000004,0.0,0.001725052321288604
360,1,1.0014102844779937,-10.173847768792493,0.0,0.0,0.0,0.0,0.0,4.3374226242317586e-5
361,2,1.0014102844779937,-10.173847768792493,0.0,0.0,0.0,0.0,-0.0005897155220063021,0.0
362,2,1.0014102844779937,-10.173847768792493,0.0,0.0,0.0,0.0,-0.0005897155220063019,0.0
363,2,1.0014102844779937,-10.173847768792493,0.0,0.0,0.0,0.0,-0.000589715522006302,0.0
364,1,1.0009649451862246,-10.233370121866681,0.0,0.0,0.3044,0.08117,0.0,4.340151416602016e-5
365,1,1.004783921068262,-12.103234246947276,0.0,0.0,0.0,0.0,0.0,-3.3372500620804385e-5
366,1,1.0038900094160583,-12.224242698910347,0.0,0.0,0.5649000000000001,0.1506,0.0,-3.340967208688923e-5
367,1,1.0141855699187694,-6.391011735049451,0.0,0.0,0.0,0.0,0.0,0.00017566607667236897
368,1,1.014029814661939,-6.410632068192863,0.0,0.0,0.11449999999999999,0.030539999999999998,0.0,0.0001757004127699098
369,1,1.0173326045556566,-5.372196238612649,0.0,0.0,0.0,0.0,0.0,0.0001739461772002749
370,1,1.0168463057186543,-5.429601144550708,0.0,0.0,0.35600000000000004,0.09494,0.0,0.00017404593865706424
371,1,1.0275405659044259,-6.4714894649181,0.0,0.0,0.0,0.0,0.0,-1.2370629100775924e-5
372,1,1.0179741238059739,-10.060221623043319,0.0,0.0,0.0,0.0,0.0,6.773834460900607e-6
373,1,1.0175686085742952,-10.108489230560608,0.0,0.0,0.2884,0.07690000000000001,0.0,6.779080380286472e-6
374,1,1.0016520864617275,-12.556886097438655,0.0,0.0,0.0,0.0,0.0,-3.755375468263832e-5
375,1,1.0013296443926434,-12.597551284439184,0.0,0.0,0.2477,0.06604,0.0,-3.756786515650654e-5
376,1,1.0072298951001935,-9.08639491386441,0.0,0.0,0.0,0.0,0.0,3.731835262327448e-5
377,1,1.0059709541021151,-9.251022121355767,0.0,0.0,0.9039,0.24100000000000002,0.0,3.738381862744583e-5
378,1,1.0198844846105783,-1.8878217621756188,0.0,0.0,0.0,0.0,0.0,-1.2261117531112579e-5
379,1,1.0196796214238562,-1.91407377954989,0.0,0.0,0.1301,0.0347,0.0,-1.2263647949764851e-5
380,1,1.0106602641582154,-8.059638138065708,0.0,0.0,0.0,0.0,0.0,0.0001787908091314907
381,1,1.0105105585227034,-8.079235309641497,0.0,0.0,0.1013,0.02702,0.0,0.00017882639530117584
382,1,1.0259765578040918,-14.835230010164391,0.0,0.0,0.0,0.0,0.0,0.00021410392072955593
383,1,1.0255391080216032,-14.89114713111516,0.0,0.0,0.2995,0.07986,0.0,0.00021422850891590533
384,1,1.0003150082925496,-13.229312486207139,0.0,0.0,0.0,0.0,0.0,0.0006483297406746832
385,1,0.9997967407146955,-13.292157528386774,0.0,0.0,0.36619999999999997,0.09766,0.0,0.0006487528625128316
386,1,1.025146529107559,-3.5608368088104108,0.0,0.0,0.0,0.0,0.0,5.0249525384648025e-5
387,1,1.0199372849070696,-5.3116898128560015,0.0,0.0,0.0,0.0,0.0,0.000117867923475542
388,2,1.025146529107559,-3.5608368088104108,0.0,0.0,0.0,0.0,-0.0018534708924409747,0.0
389,2,1.025146529107559,-3.5608368088104108,0.0,0.0,0.0,0.0,-0.0018534708924409747,0.0
390,2,1.025146529107559,-3.5608368088104108,0.0,0.0,0.0,0.0,-0.001853470892440975,0.0
391,2,1.025146529107559,-3.5608368088104108,0.0,0.0,0.0,0.0,-0.0018534708924409747,0.0
392,2,1.025146529107559,-3.5608368088104108,0.0,0.0,0.0,0.0,-0.0018534708924409747,0.0
393,2,1.025146529107559,-3.5608368088104108,0.0,0.0,0.0,0.0,-0.0018534708924409747,0.0
394,2,1.025146529107559,-3.5608368088104108,0.0,0.0,0.0,0.0,-0.0018534708924409747,0.0
395,2,1.025146529107559,-3.5608368088104108,0.0,0.0,0.0,0.0,-0.0018534708924409747,0.0
396,2,1.025146529107559,-3.5608368088104108,0.0,0.0,0.0,0.0,-0.0018534708924409747,0.0
397,1,1.0193899477273989,-5.381320518708149,0.0,0.0,0.3995,0.1065,0.0,0.00011794943556536079
398,1,1.0196868221867144,-5.338671671187059,0.0,0.0,0.1677,0.04471,0.0,0.00011790027684624437
399,1,1.0221079007228546,-12.731616010490486,0.0,0.0,0.0,0.0,0.0,6.523888423210281e-5
400,1,1.0217124889737317,-12.77936729499891,0.0,0.0,0.2302,0.061399999999999996,0.0,6.527284180435029e-5
401,1,1.0076979706631022,4.094569990683907,0.0,0.0,0.0,0.0,0.0,-6.491891603952728e-6
402,1,1.0063753783276859,3.9160799501235664,0.0,0.0,0.8835,0.23559999999999998,0.0,-6.499774438702689e-6
403,1,1.0126505645437376,-12.263725756359166,0.0,0.0,0.0,0.0,0.0,5.5617809188326594e-5
404,1,1.0123493765592089,-12.300209673768164,0.0,0.0,0.1977,0.05272,0.0,5.5640840515442954e-5
405,1,1.0052377738468674,-3.127621972481467,0.0,0.0,0.0,0.0,0.0,9.414253461093383e-6
406,1,1.0051577880871643,-3.1377300658871734,0.0,0.0,0.0525,0.013999999999999999,0.0,9.415444432444323e-6
407,1,1.0333469069734156,-9.09872391393645,0.0,0.0,0.0,0.0,0.0,4.006030106240271e-5
408,1,1.027051550409846,-11.212131863712804,0.0,0.0,0.0,0.0,0.0,5.378388565901926e-5
409,2,1.0333469069734156,-9.09872391393645,0.0,0.0,0.0,0.0,-0.0006530930265845606,0.0
410,2,1.0390130464761107,-7.321551153778738,0.7943000000000001,0.1474664686805519,0.0,0.0,-0.000986953523889278,0.0
411,2,1.038237318773848,-8.104102033832751,0.7943000000000001,0.21762319665220523,0.0,0.0,-0.0017626812261520566,0.0
412,2,1.0384623716904964,-7.958669799633777,0.7943000000000001,0.19924912792470978,0.0,0.0,-0.0015376283095037341,0.0
413,2,1.0389738290501032,-7.7760970229074955,0.616,0.14339215802864358,0.0,0.0,-0.0010261709498967082,0.0
414,2,1.0333469069734156,-9.09872391393645,0.0,0.0,0.0,0.0,-0.0006530930265845606,0.0
415,1,1.004305248736827,-11.438246034659429,0.0,0.0,0.0,0.0,0.0,-6.637840891762216e-5
416,1,1.0042117292502024,-11.45096585064677,0.0,0.0,0.060629999999999996,0.01617,0.0,-6.638639904121667e-5
417,1,0.998150962103117,-10.987449966020327,0.0,0.0,0.0,0.0,0.0,0.0001384403041137468
418,1,0.997136734392876,-11.109915706259189,0.0,0.0,0.6362,0.1696,0.0,0.00013861736733974803
419,1,1.013412548180822,-15.232382507709369,0.0,0.0,0.0,0.0,0.0,0.001808522920765222
420,1,1.0133250586965739,-15.242830195323618,0.0,0.0,0.05226,0.01394,0.0,0.0018087382484691223
421,1,1.0129315433241193,-8.467390582419412,0.0,0.0,0.0,0.0,0.0,-2.224148853857518e-5
422,1,1.0122231469525578,-8.54814129283206,0.0,0.0,0.4918,0.1311,0.0,-2.22560997556679e-5
423,1,0.9974728138252535,3.29727658554601,0.0,0.0,0.0,0.0,0.0,4.1147649886277e-6
424,1,0.9947499491036782,2.963289940758177,0.0,0.0,1.571,0.4189,0.0,4.137358344127031e-6
425,1,1.0187094450392769,-8.921194339960444,0.0,0.0,0.0,0.0,0.0,0.0001764735744436633
426,1,1.0134247311308178,-11.22140852466863,0.0,0.0,0.0,0.0,0.0,0.0001703223406253207
427,1,1.0132128632996174,-11.244319597221844,0.0,0.0,0.14429999999999998,0.03849,0.0,0.00017036429698185035
428,1,1.0301439445430038,-5.486418564173545,0.0,0.0,0.0,0.0,0.0,-8.34962975020861e-7
429,1,1.0198067445456582,-7.288459037839755,0.0,0.0,0.0,0.0,0.0,1.3076036082113173e-5
430,2,1.0303920477479949,-5.45235970145668,0.01,0.0038399859288476266,0.0,0.0,-0.0006079522520049625,0.0
431,2,1.0306033645718105,-5.421738798569595,0.033,0.012669947924539232,0.0,0.0,-0.0003966354281896502,0.0
432,2,1.03028862101719,-5.46590786297164,0.012,0.004609969459926196,0.0,0.0,-0.000711378982810052,0.0
433,2,1.032446402208017,-5.15914473283218,0.067,0.025729991368308936,0.0,0.0,-0.0005535977919827583,0.0
434,2,1.0305187489263665,-5.434143020438275,0.043,0.01650992910900157,0.0,0.0,-0.0004812510736333647,0.0
435,2,1.0301439445430038,-5.486418564173545,0.0,0.0,0.0,0.0,-0.0008560554569961791,0.0
436,2,1.0301439445430038,-5.486418564173545,0.0,0.0,0.0,0.0,-0.0008560554569961791,0.0
437,2,1.0400467944398837,-3.5476975789832057,1.97,0.5768392432708959,0.0,0.0,4.679443988367555e-5,0.0
438,2,1.040037342758181,-3.051764341104312,1.97,0.4402909819007826,0.0,0.0,3.73427581811201e-5,0.0
439,2,1.040059428164237,-3.961183663294955,1.97,0.7201029164139744,0.0,0.0,5.9428164236863226e-5,0.0
440,1,1.01610438246081,-7.463077524899719,0.0,0.0,0.0,0.0,0.0,0.00017251355552062606
441,1,1.002237573069769,-11.525168670667398,0.0,0.0,0.0,0.0,0.0,0.00037431173178656115
442,2,1.01610438246081,-7.463077524899719,0.0,0.0,0.0,0.0,0.0011043824608100309,0.0
443,2,1.01610438246081,-7.463077524899719,0.0,0.0,0.0,0.0,0.0011043824608100309,0.0
444,2,1.01610438246081,-7.463077524899719,0.0,0.0,0.0,0.0,0.0011043824608100306,0.0
445,1,1.0068811464185807,-9.44484770277853,0.0,0.0,0.0,0.0,0.0,0.00014778830838239792
446,1,1.0054341126473876,-9.615379800287615,0.0,0.0,0.8868,0.2365,0.0,0.0001480500909700009
447,1,1.0187040965474796,-7.94588741998291,0.0,0.0,0.0,0.0,0.0,0.00015033662247550868
448,1,1.0177952322318384,-8.063191491595182,0.0,0.0,0.5756,0.1535,0.0,0.00015051656876257705
449,1,1.0113721960482003,-8.498765414036916,0.0,0.0,0.0,0.0,0.0,2.6497340036803088e-5
450,1,1.0113564854305506,-8.500768810820107,0.0,0.0,0.01122,0.00299,0.0,2.64979178864435e-5
451,1,1.0113420089735834,-8.502545902782861,0.0,0.0,0.022109999999999998,0.0059,0.0,2.6498434874146672e-5
452,1,1.01647037158156,3.403435939237879,0.0,0.0,0.1116,0.029769999999999998,0.0,-2.443339801726106e-6
453,1,1.03068961234637,-6.76416765774739,0.0,0.0,0.0,0.0,0.0,-1.4242029175131829e-5
454,1,1.0119802174051058,-11.053485921402908,0.0,0.0,0.0,0.0,0.0,-2.9755670081264953e-5
455,2,1.0409089440574377,-6.196262183812928,0.6685,0.6507601598344775,0.0,0.0,0.0009089440574377712,0.0
456,2,1.040880604123072,-5.57816550495207,1.337,0.6377030507447539,0.0,0.0,0.0008806041230720734,0.0
457,1,1.0195163702728276,-7.170297852725677,0.0,0.0,0.0,0.0,0.0,-0.00010450525121194013
458,2,1.0187170612669287,-2.801890573043349,1.0959999999999999,0.0,0.0,0.0,-0.002282938733071225,0.0
459,1,1.0094032170768164,6.8700229469757375,0.0,0.0,0.7447,0.1986,0.0,7.336755123412321e-7
460,1,1.0042112147683118,-9.434037071869597,0.0,0.0,0.2634,0.07025,0.0,4.881921766696797e-5
461,1,1.002223878078118,-9.398017424470291,0.0,0.0,0.9172,0.2446,0.0,0.00015962457512481106
462,1,1.024871550845574,-7.543434718301869,0.0,0.0,0.0,0.0,0.0,0.00027155794627815454
463,2,1.024871550845574,-7.543434718301869,0.0,0.0,0.0,0.0,0.0058715508455740315,0.0
464,1,1.027924581112749,-5.756036541304978,0.0,0.0,0.0,0.0,0.0,3.057580941587275e-5
465,1,1.0254595258983155,-6.787204465911766,0.0,0.0,0.1252,0.03339,0.0,0.00012204002671498767
466,1,1.017949184267945,-7.5746318920908005,0.0,0.0,0.4334,0.11560000000000001,0.0,1.2870486695800464e-5
467,1,1.0140143310398093,-6.677030148579045,0.0,0.0,0.00807,0.00215,0.0,0.0001260853616372665
468,1,1.0062156298962737,-8.150761446423571,0.0,0.0,0.03762,0.010029999999999999,0.0,0.00011298462798505475
469,1,0.991556720488413,-11.65271368451332,0.0,0.0,1.285,0.3427,0.0,8.953566500242489e-5
470,1,1.0152160162532524,-6.279187301215651,0.0,0.0,0.42560000000000003,0.11349999999999999,0.0,0.0001227913439155716
471,1,1.0285592660130058,-5.442655313623529,0.0,0.0,0.0,0.0,0.0,1.5624947023014904e-5
472,1,1.0217258465431114,-6.936421033753828,0.0,0.0,0.4971,0.1326,0.0,3.985385875891885e-5
473,1,1.0158707554930353,-5.868685967232285,0.0,0.0,0.00999,0.00266,0.0,0.0001887419283829905
474,1,1.0013535445667805,-9.622906221506044,0.0,0.0,0.0,0.0,0.0,0.0001232573630314155
475,1,1.0162278352795993,-5.811279820206621,0.0,0.0,0.0016200000000000001,0.00043,0.0,-9.192244407715384e-6
476,1,1.012068689196823,-11.298603758937915,0.0,0.0,0.5986,0.15960000000000002,0.0,-4.160505468488466e-5
477,1,1.0236953731902798,-8.700758438824433,0.0,0.0,0.0,0.0,0.0,0.0002243741118095164
478,1,1.0189195265514832,-4.252410675141061,0.0,0.0,0.0,0.0,0.0,7.577456467282062e-5
479,1,1.0331436117689103,-5.406550469078641,0.0,0.0,0.0,0.0,0.0,-2.7924719333280213e-5
480,2,1.040458631406744,-3.5385277901323766,0.56,0.10829692714020647,0.0,0.0,0.00045863140674422,0.0
481,2,1.04052464239067,-4.093902187673367,0.45,0.13616010808162313,0.0,0.0,0.0005246423906699579,0.0
482,2,1.0388798778068187,-4.65349489677425,0.45,0.17279998054850754,0.0,0.0,-0.00012012219318128577,0.0
483,2,1.0402869710482543,-4.130918792400986,0.24,0.06828553651002811,0.0,0.0,0.0002869710482543199,0.0
484,2,1.039111870859803,-4.594640971788797,0.28,0.1074999676081738,0.0,0.0,0.00011187085980315645,0.0
485,1,1.0081211790119682,-11.894717509353992,0.0,0.0,0.2788,0.07434,0.0,-2.7949098961871852e-5
486,1,1.011122015097762,-11.022994875643503,0.0,0.0,0.6853,0.18280000000000002,0.0,-3.610376784882877e-5
487,1,1.0369258117696445,-15.078699094000065,0.0,0.0,0.1167,0.031110000000000002,0.0,0.00177722804342226
488,1,0.9892979087402554,-11.849407085091451,0.0,0.0,0.9790000000000001,0.2611,0.0,2.2211987389873082e-5
489,1,1.02389457838569,-11.480274066349612,0.0,0.0,0.0,0.0,0.0,0.00032668354004593866
490,1,0.9987181252755322,-12.853418838508528,0.0,0.0,0.2981,0.0795,0.0,0.00021622969627945298
491,1,1.0117202382580706,-12.960489642544331,0.0,0.0,1.195,0.3187,0.0,-3.632444047307514e-5
492,1,1.004408316773358,-3.823231918594491,0.0,0.0,0.5954,0.1588,0.0,2.1017125490605186e-6
493,1,1.016482005131205,-6.496884409740667,0.0,0.0,0.04047,0.01079,0.0,0.00017821599163831266
494,2,1.016482005131205,-6.496884409740667,0.0,0.0,0.0,0.0,0.0024820051312050345,0.0
495,1,1.0089324315979107,-8.853974497407537,0.0,0.0,0.7517,0.2005,0.0,3.191108978675575e-5
496,1,1.0126370460952996,7.1377926301616945,0.0,0.0,0.0,0.0,0.0,1.016243604238772e-6
497,2,1.0269841963542472,9.258798337964022,0.6,0.22511256056915488,0.0,0.0,-1.58036457528874e-5,0.0
498,2,1.0209912907898615,8.295304034896642,0.18,0.06822195395611579,0.0,0.0,-8.709210138392668e-6,0.0
499,1,1.0006088781226234,-13.201658691030454,0.0,0.0,1.2229999999999999,0.3262,0.0,-1.0001291567723698e-5
500,1,1.0230077801231112,-11.469036618168627,0.0,0.0,0.0,0.0,0.0,0.0004978828416798086
